psse/psse-model-test/src/main/resources/illinois/synthetic/uiuc-150bus.RAW
 0,    100.00, 33, 0, 0, 60.00       / February 04, 2016 15:49:47; Simulator Version 19; BuildDate 2016_1_9


    1,'Johnsonvil~6',  13.8000,3,   1,   1,   1,1.04000,   0.0000, 1.10000, 0.90000, 1.10000, 0.90000
    2,'GOODLETTSV~1', 230.0000,1,   1,   1,   1,1.00157, -13.3224, 1.10000, 0.90000, 1.10000, 0.90000
    3,'LEBANON_37~1', 230.0000,1,   1,   1,   1,1.01154, -12.2763, 1.10000, 0.90000, 1.10000, 0.90000
    4,'ANTIOCH_37~1', 230.0000,1,   1,   1,   1,1.00802, -13.5941, 1.10000, 0.90000, 1.10000, 0.90000
    5,'BRENTWOOD_~1', 230.0000,1,   1,   1,   1,0.99778, -15.4674, 1.10000, 0.90000, 1.10000, 0.90000
    6,'NASHVILLE_~3', 230.0000,1,   1,   1,   1,0.99676, -14.3990, 1.10000, 0.90000, 1.10000, 0.90000
    7,'MCMINNVILL~1', 230.0000,1,   1,   1,   1,1.00710, -12.4313, 1.10000, 0.90000, 1.10000, 0.90000
    8,'MURFREESBO~3', 230.0000,1,   1,   1,   1,1.02299, -11.0346, 1.10000, 0.90000, 1.10000, 0.90000
    9,'SHELBYVILL~1', 230.0000,1,   1,   1,   1,1.00121, -16.0055, 1.10000, 0.90000, 1.10000, 0.90000
   10,'LAFAYETTE_~1', 230.0000,1,   1,   1,   1,1.02104, -11.1403, 1.10000, 0.90000, 1.10000, 0.90000
   11,'CLARKSVILL~3', 230.0000,1,   1,   1,   1,1.03163,  -8.3012, 1.10000, 0.90000, 1.10000, 0.90000
   12,'DICKSON_37~1', 230.0000,1,   1,   1,   1,0.99887, -12.6233, 1.10000, 0.90000, 1.10000, 0.90000
   13,'NASHVILLE_~8', 230.0000,1,   1,   1,   1,0.99019, -15.7430, 1.10000, 0.90000, 1.10000, 0.90000
   14,'CLARKSVILL~1', 230.0000,1,   1,   1,   1,1.02369,  -9.6897, 1.10000, 0.90000, 1.10000, 0.90000
   15,'WHITE HOUS~1', 230.0000,1,   1,   1,   1,1.01355, -11.7729, 1.10000, 0.90000, 1.10000, 0.90000
   16,'FRANKLIN_3~1', 230.0000,1,   1,   1,   1,0.99387, -16.7599, 1.10000, 0.90000, 1.10000, 0.90000
   17,'HENDERSONV~1', 230.0000,1,   1,   1,   1,1.01451, -11.7385, 1.10000, 0.90000, 1.10000, 0.90000
   18,'HERMITAGE_~1', 230.0000,1,   1,   1,   1,1.01162, -13.1627, 1.10000, 0.90000, 1.10000, 0.90000
   19,'SMYRNA_371~1', 230.0000,1,   1,   1,   1,1.00895, -13.2624, 1.10000, 0.90000, 1.10000, 0.90000
   20,'LEXINGTON_~1', 230.0000,1,   1,   1,   1,1.01320, -10.3980, 1.10000, 0.90000, 1.10000, 0.90000
   21,'NASHVILLE_~2', 230.0000,1,   1,   1,   1,1.00634, -13.1843, 1.10000, 0.90000, 1.10000, 0.90000
   22,'NASHVILLE_~6', 230.0000,1,   1,   1,   1,1.01656, -12.5530, 1.10000, 0.90000, 1.10000, 0.90000
   23,'MURFREESBO~1', 230.0000,1,   1,   1,   1,1.01855, -11.9252, 1.10000, 0.90000, 1.10000, 0.90000
   24,'CAMDEN_383~1', 230.0000,1,   1,   1,   1,1.03639,  -6.3557, 1.10000, 0.90000, 1.10000, 0.90000
   25,'GAINESBORO~1', 230.0000,1,   1,   1,   1,1.02368, -11.0325, 1.10000, 0.90000, 1.10000, 0.90000
   26,'COLUMBIA_3~1', 230.0000,1,   1,   1,   1,1.00433, -18.0245, 1.10000, 0.90000, 1.10000, 0.90000
   27,'TULLAHOMA_~1', 230.0000,1,   1,   1,   1,1.02965,  -9.9480, 1.10000, 0.90000, 1.10000, 0.90000
   28,'NASHVILLE_~5', 230.0000,1,   1,   1,   1,1.00240, -13.9710, 1.10000, 0.90000, 1.10000, 0.90000
   29,'NASHVILLE_~1', 230.0000,1,   1,   1,   1,1.00902, -13.2364, 1.10000, 0.90000, 1.10000, 0.90000
   30,'NASHVILLE_~4', 230.0000,1,   1,   1,   1,1.00901, -13.5803, 1.10000, 0.90000, 1.10000, 0.90000
   31,'CHATTANOOG~2', 230.0000,1,   1,   1,   1,1.01583,  -9.4724, 1.10000, 0.90000, 1.10000, 0.90000
   32,'CHATTANOOG~3', 230.0000,1,   1,   1,   1,1.02743,  -7.5251, 1.10000, 0.90000, 1.10000, 0.90000
   33,'ATHENS_373~1', 230.0000,1,   1,   1,   1,1.03012,  -8.9087, 1.10000, 0.90000, 1.10000, 0.90000
   34,'CLEVELAND_~1', 230.0000,1,   1,   1,   1,1.01969,  -8.6445, 1.10000, 0.90000, 1.10000, 0.90000
   35,'SODDY DAIS~1', 230.0000,1,   1,   1,   1,1.03194,  -6.8499, 1.10000, 0.90000, 1.10000, 0.90000
   36,'COPPERHILL~1', 230.0000,1,   1,   1,   1,1.02377,  -8.3551, 1.10000, 0.90000, 1.10000, 0.90000
   37,'DAYTON_373~1', 230.0000,1,   1,   1,   1,1.02193,  -9.2717, 1.10000, 0.90000, 1.10000, 0.90000
   38,'DUNLAP_373~1', 230.0000,1,   1,   1,   1,1.01409, -10.6209, 1.10000, 0.90000, 1.10000, 0.90000
   39,'FAYETTEVIL~1', 230.0000,1,   1,   1,   1,1.00997, -13.8449, 1.10000, 0.90000, 1.10000, 0.90000
   40,'HIXSON_373~1', 230.0000,1,   1,   1,   1,1.02892,  -7.3518, 1.10000, 0.90000, 1.10000, 0.90000
   41,'CHATTANOOG~1', 230.0000,1,   1,   1,   1,1.01925,  -8.7236, 1.10000, 0.90000, 1.10000, 0.90000
   42,'JOHNSON CI~1', 230.0000,1,   1,   1,   1,1.01984, -15.5271, 1.10000, 0.90000, 1.10000, 0.90000
   43,'JONESBOROU~1', 230.0000,1,   1,   1,   1,1.02309, -15.0880, 1.10000, 0.90000, 1.10000, 0.90000
   44,'GREENEVILL~1', 230.0000,1,   1,   1,   1,1.02198, -14.8548, 1.10000, 0.90000, 1.10000, 0.90000
   45,'ELIZABETHT~1', 230.0000,1,   1,   1,   1,1.02442, -15.0467, 1.10000, 0.90000, 1.10000, 0.90000
   46,'CHURCH HIL~1', 230.0000,1,   1,   1,   1,1.02388, -14.5152, 1.10000, 0.90000, 1.10000, 0.90000
   47,'KINGSPORT_~1', 230.0000,1,   1,   1,   1,1.01661, -15.8784, 1.10000, 0.90000, 1.10000, 0.90000
   48,'MOUNTAIN C~1', 230.0000,1,   1,   1,   1,1.02118, -15.6018, 1.10000, 0.90000, 1.10000, 0.90000
   49,'MARYVILLE_~2', 230.0000,1,   1,   1,   1,1.02217, -11.9073, 1.10000, 0.90000, 1.10000, 0.90000
   50,'CLINTON_37~1', 230.0000,1,   1,   1,   1,1.00908, -13.2520, 1.10000, 0.90000, 1.10000, 0.90000
   51,'MORRISTOWN~1', 230.0000,1,   1,   1,   1,1.01755, -14.5845, 1.10000, 0.90000, 1.10000, 0.90000
   52,'KNOXVILLE_~1', 230.0000,1,   1,   1,   1,1.01030, -13.8036, 1.10000, 0.90000, 1.10000, 0.90000
   53,'LOUDON_377~1', 230.0000,1,   1,   1,   1,1.02503,  -9.9999, 1.10000, 0.90000, 1.10000, 0.90000
   54,'JEFFERSON ~1', 230.0000,1,   1,   1,   1,1.02358, -13.6693, 1.10000, 0.90000, 1.10000, 0.90000
   55,'LA FOLLETT~1', 230.0000,1,   1,   1,   1,1.00933, -12.7553, 1.10000, 0.90000, 1.10000, 0.90000
   56,'KNOXVILLE_~2', 230.0000,1,   1,   1,   1,1.01000, -13.5643, 1.10000, 0.90000, 1.10000, 0.90000
   57,'CROSSVILLE~1', 230.0000,1,   1,   1,   1,1.01813, -11.2425, 1.10000, 0.90000, 1.10000, 0.90000
   58,'TAZEWELL_3~1', 230.0000,1,   1,   1,   1,1.00969, -14.8599, 1.10000, 0.90000, 1.10000, 0.90000
   59,'HARRIMAN_3~1', 230.0000,1,   1,   1,   1,1.02660,  -9.7425, 1.10000, 0.90000, 1.10000, 0.90000
   60,'SEVIERVILL~1', 230.0000,1,   1,   1,   1,1.00971, -14.7027, 1.10000, 0.90000, 1.10000, 0.90000
   61,'MARYVILLE_~1', 230.0000,1,   1,   1,   1,1.01399, -11.6270, 1.10000, 0.90000, 1.10000, 0.90000
   62,'KNOXVILLE_~7', 230.0000,1,   1,   1,   1,1.01733, -11.4641, 1.10000, 0.90000, 1.10000, 0.90000
   63,'KNOXVILLE_~5', 230.0000,1,   1,   1,   1,1.02080, -11.7876, 1.10000, 0.90000, 1.10000, 0.90000
   64,'KNOXVILLE_~3', 230.0000,1,   1,   1,   1,1.02025, -11.5185, 1.10000, 0.90000, 1.10000, 0.90000
   65,'HUMBOLDT_3~1', 230.0000,1,   1,   1,   1,1.01197, -12.3259, 1.10000, 0.90000, 1.10000, 0.90000
   66,'ARLINGTON_~1', 230.0000,1,   1,   1,   1,0.99741, -16.0161, 1.10000, 0.90000, 1.10000, 0.90000
   67,'BRIGHTON_3~1', 230.0000,1,   1,   1,   1,1.00711, -14.1895, 1.10000, 0.90000, 1.10000, 0.90000
   68,'UNION CITY~1', 230.0000,1,   1,   1,   1,1.00456, -13.2210, 1.10000, 0.90000, 1.10000, 0.90000
   69,'WHITEVILLE~1', 230.0000,1,   1,   1,   1,1.01596, -13.1877, 1.10000, 0.90000, 1.10000, 0.90000
   70,'BROWNSVILL~1', 230.0000,1,   1,   1,   1,1.02061, -12.2900, 1.10000, 0.90000, 1.10000, 0.90000
   71,'CORDOVA_38~1', 230.0000,1,   1,   1,   1,0.99755, -16.2727, 1.10000, 0.90000, 1.10000, 0.90000
   72,'COLLIERVIL~1', 230.0000,1,   1,   1,   1,0.99379, -16.5325, 1.10000, 0.90000, 1.10000, 0.90000
   73,'DYERSBURG_~1', 230.0000,1,   1,   1,   1,1.01158, -12.7482, 1.10000, 0.90000, 1.10000, 0.90000
   74,'MEMPHIS_38~9', 230.0000,1,   1,   1,   1,0.99351, -16.8693, 1.10000, 0.90000, 1.10000, 0.90000
   75,'MEMPHIS_38~7', 230.0000,1,   1,   1,   1,0.98973, -17.2665, 1.10000, 0.90000, 1.10000, 0.90000
   76,'MEMPHIS_38~1', 230.0000,1,   1,   1,   1,0.99659, -16.9255, 1.10000, 0.90000, 1.10000, 0.90000
   77,'MEMPHIS_38~2', 230.0000,1,   1,   1,   1,0.99349, -17.4344, 1.10000, 0.90000, 1.10000, 0.90000
   78,'MEMPHIS_38~8', 230.0000,1,   1,   1,   1,0.99140, -17.2711, 1.10000, 0.90000, 1.10000, 0.90000
   79,'MEMPHIS_38~3', 230.0000,1,   1,   1,   1,1.00802, -15.6887, 1.10000, 0.90000, 1.10000, 0.90000
   80,'MEMPHIS_38~5', 230.0000,1,   1,   1,   1,0.99713, -16.8290, 1.10000, 0.90000, 1.10000, 0.90000
   81,'MEMPHIS_38~6', 230.0000,1,   1,   1,   1,0.99909, -16.7847, 1.10000, 0.90000, 1.10000, 0.90000
   82,'GERMANTOWN~1', 230.0000,1,   1,   1,   1,0.99461, -16.9936, 1.10000, 0.90000, 1.10000, 0.90000
   83,'HUNTINGDON~1', 230.0000,1,   1,   1,   1,1.00667, -12.3957, 1.10000, 0.90000, 1.10000, 0.90000
   84,'PARIS_3824~1', 230.0000,1,   1,   1,   1,1.01700,  -9.7090, 1.10000, 0.90000, 1.10000, 0.90000
   85,'MARTIN_382~1', 230.0000,1,   1,   1,   1,1.00599, -12.2328, 1.10000, 0.90000, 1.10000, 0.90000
   86,'JACKSON_38~1', 230.0000,1,   1,   1,   1,1.03199,  -9.7185, 1.10000, 0.90000, 1.10000, 0.90000
   87,'ADAMSVILLE~1', 230.0000,1,   1,   1,   1,1.01937, -12.6765, 1.10000, 0.90000, 1.10000, 0.90000
   88,'SAVANNAH_3~1', 230.0000,1,   1,   1,   1,1.01415, -13.7067, 1.10000, 0.90000, 1.10000, 0.90000
   89,'LAWRENCEBU~1', 230.0000,1,   1,   1,   1,0.98907, -18.7509, 1.10000, 0.90000, 1.10000, 0.90000
   90,'COOKEVILLE~1', 230.0000,1,   1,   1,   1,1.02926,  -9.9615, 1.10000, 0.90000, 1.10000, 0.90000
   91,'LIVINGSTON~1', 230.0000,1,   1,   1,   1,1.02217, -11.2583, 1.10000, 0.90000, 1.10000, 0.90000
   92,'KNOXVILLE_~6', 500.0000,1,   1,   1,   1,1.03861,  -8.5623, 1.10000, 0.90000, 1.10000, 0.90000
   93,'JEFFERSON ~2', 500.0000,1,   1,   1,   1,1.04153, -10.8640, 1.10000, 0.90000, 1.10000, 0.90000
   94,'HIXSON_373~2', 500.0000,1,   1,   1,   1,1.04914,  -3.8066, 1.10000, 0.90000, 1.10000, 0.90000
   95,'JACKSON_38~2', 500.0000,1,   1,   1,   1,1.04849,  -6.8922, 1.10000, 0.90000, 1.10000, 0.90000
   96,'MURFREESBO~2', 500.0000,1,   1,   1,   1,1.03800,  -8.1173, 1.10000, 0.90000, 1.10000, 0.90000
   97,'JONESBOROU~2', 500.0000,1,   1,   1,   1,1.04024, -12.0948, 1.10000, 0.90000, 1.10000, 0.90000
   98,'CLARKSVILL~4', 500.0000,1,   1,   1,   1,1.04585,  -5.4536, 1.10000, 0.90000, 1.10000, 0.90000
   99,'MEMPHIS_38~4', 500.0000,1,   1,   1,   1,1.02603, -11.4034, 1.10000, 0.90000, 1.10000, 0.90000
  100,'KNOXVILLE_~4', 500.0000,1,   1,   1,   1,1.03946,  -8.1144, 1.10000, 0.90000, 1.10000, 0.90000
  101,'NASHVILLE_~7', 500.0000,1,   1,   1,   1,1.03985,  -7.4330, 1.10000, 0.90000, 1.10000, 0.90000
  102,'MURFREESBO~4', 500.0000,1,   1,   1,   1,1.03948,  -7.9726, 1.10000, 0.90000, 1.10000, 0.90000
  103,'ELIZABETHT~2', 500.0000,1,   1,   1,   1,1.03733, -12.6631, 1.10000, 0.90000, 1.10000, 0.90000
  104,'CORDOVA_38~2', 500.0000,1,   1,   1,   1,1.02698, -11.1193, 1.10000, 0.90000, 1.10000, 0.90000
  105,'COOKEVILLE~2', 500.0000,1,   1,   1,   1,1.04436,  -6.8281, 1.10000, 0.90000, 1.10000, 0.90000
  106,'TULLAHOMA_~2', 500.0000,1,   1,   1,   1,1.04258,  -7.0208, 1.10000, 0.90000, 1.10000, 0.90000
  107,'ATHENS_373~2', 500.0000,1,   1,   1,   1,1.04646,  -6.0496, 1.10000, 0.90000, 1.10000, 0.90000
  108,'CLARKSVILL~2', 500.0000,1,   1,   1,   1,1.04499,  -5.7642, 1.10000, 0.90000, 1.10000, 0.90000
  109,'MARYVILLE_~3', 500.0000,1,   1,   1,   1,1.03969,  -8.9059, 1.10000, 0.90000, 1.10000, 0.90000
  110,'Gallatin (~3',  13.8000,2,   1,   1,   1,1.04000,  -3.6306, 1.10000, 0.90000, 1.10000, 0.90000
  111,'Gallatin (~4',  13.8000,2,   1,   1,   1,1.04000,  -3.6306, 1.10000, 0.90000, 1.10000, 0.90000
  112,'Gallatin (~5',  13.8000,2,   1,   1,   1,1.04000,  -3.6306, 1.10000, 0.90000, 1.10000, 0.90000
  113,'John Sevie~3',  13.8000,2,   1,   1,   1,1.04000,  -8.0971, 1.10000, 0.90000, 1.10000, 0.90000
  114,'John Sevie~4',  13.8000,2,   1,   1,   1,1.04000,  -8.0971, 1.10000, 0.90000, 1.10000, 0.90000
  115,'John Sevie~5',  13.8000,2,   1,   1,   1,1.04000,  -8.0971, 1.10000, 0.90000, 1.10000, 0.90000
  116,'Johnsonvil~3',  13.8000,2,   1,   1,   1,1.04000,  -0.0042, 1.10000, 0.90000, 1.10000, 0.90000
  117,'Johnsonvil~4',  13.8000,2,   1,   1,   1,1.04000,  -0.0042, 1.10000, 0.90000, 1.10000, 0.90000
  118,'Johnsonvil~5',  13.8000,2,   1,   1,   1,1.04000,  -0.0042, 1.10000, 0.90000, 1.10000, 0.90000
  119,'Johnsonvil~7',  13.8000,2,   1,   1,   1,1.04000,  -0.0042, 1.10000, 0.90000, 1.10000, 0.90000
  120,'Kingston_g1 ',  13.8000,2,   1,   1,   1,1.04000,  -2.8222, 1.10000, 0.90000, 1.10000, 0.90000
  121,'Kingston_g2 ',  13.8000,2,   1,   1,   1,1.04000,  -2.8222, 1.10000, 0.90000, 1.10000, 0.90000
  122,'Kingston_g3 ',  13.8000,2,   1,   1,   1,1.04000,  -2.8222, 1.10000, 0.90000, 1.10000, 0.90000
  123,'Kingston_g4 ',  13.8000,2,   1,   1,   1,1.04000,  -2.8222, 1.10000, 0.90000, 1.10000, 0.90000
  124,'Lagoon Cre~3',  13.8000,2,   1,   1,   1,1.04000,  -4.9739, 1.10000, 0.90000, 1.10000, 0.90000
  125,'Lagoon Cre~4',  13.8000,2,   1,   1,   1,1.04000,  -4.9739, 1.10000, 0.90000, 1.10000, 0.90000
  126,'Lagoon Cre~5',  13.8000,2,   1,   1,   1,1.04000,  -4.9739, 1.10000, 0.90000, 1.10000, 0.90000
  127,'Lagoon Cre~6',  13.8000,2,   1,   1,   1,1.04000,  -4.9739, 1.10000, 0.90000, 1.10000, 0.90000
  128,'Lagoon Cre~7',  13.8000,2,   1,   1,   1,1.04000,  -4.9739, 1.10000, 0.90000, 1.10000, 0.90000
  129,'Pickwick L~3',  13.8000,2,   1,   1,   1,1.04000,  -4.8359, 1.10000, 0.90000, 1.10000, 0.90000
  130,'Sequoyah_g1 ',  13.8000,2,   1,   1,   1,1.04000,   0.0913, 1.10000, 0.90000, 1.10000, 0.90000
  131,'Sequoyah_g2 ',  13.8000,2,   1,   1,   1,1.04000,   0.0913, 1.10000, 0.90000, 1.10000, 0.90000
  132,'Sequoyah_g3 ',  13.8000,2,   1,   1,   1,1.04000,   0.0913, 1.10000, 0.90000, 1.10000, 0.90000
  133,'Sequoyah_g4 ',  13.8000,2,   1,   1,   1,1.04000,   0.0913, 1.10000, 0.90000, 1.10000, 0.90000
  134,'Sequoyah_g5 ',  13.8000,2,   1,   1,   1,1.04000,   0.0913, 1.10000, 0.90000, 1.10000, 0.90000
  135,'Tims Ford_g1',  13.8000,2,   1,   1,   1,1.04000,  -8.4979, 1.10000, 0.90000, 1.10000, 0.90000
  136,'Lagoon Cre~1', 230.0000,1,   1,   1,   1,1.02912, -10.9278, 1.10000, 0.90000, 1.10000, 0.90000
  137,'Lagoon Cre~2', 500.0000,1,   1,   1,   1,1.04522,  -7.8399, 1.10000, 0.90000, 1.10000, 0.90000
  138,'Kingston_2~1', 230.0000,1,   1,   1,   1,1.03409,  -8.6597, 1.10000, 0.90000, 1.10000, 0.90000
  139,'Kingston_5~1', 500.0000,1,   1,   1,   1,1.04836,  -5.6840, 1.10000, 0.90000, 1.10000, 0.90000
  140,'Tims Ford_~1', 230.0000,1,   1,   1,   1,1.02354, -11.3944, 1.10000, 0.90000, 1.10000, 0.90000
  141,'Gallatin (~1', 230.0000,1,   1,   1,   1,1.02658, -10.0141, 1.10000, 0.90000, 1.10000, 0.90000
  142,'Gallatin (~2', 500.0000,1,   1,   1,   1,1.04443,  -6.4978, 1.10000, 0.90000, 1.10000, 0.90000
  143,'Johnsonvil~1', 230.0000,1,   1,   1,   1,1.04032,  -5.7627, 1.10000, 0.90000, 1.10000, 0.90000
  144,'Johnsonvil~2', 500.0000,1,   1,   1,   1,1.05404,  -2.8583, 1.10000, 0.90000, 1.10000, 0.90000
  145,'Sequoyah_2~1', 230.0000,1,   1,   1,   1,1.03729,  -6.0287, 1.10000, 0.90000, 1.10000, 0.90000
  146,'Sequoyah_5~1', 500.0000,1,   1,   1,   1,1.05252,  -2.7648, 1.10000, 0.90000, 1.10000, 0.90000
  147,'Pickwick L~1', 230.0000,1,   1,   1,   1,1.03409, -10.5669, 1.10000, 0.90000, 1.10000, 0.90000
  148,'Pickwick L~2', 500.0000,1,   1,   1,   1,1.04784,  -7.6983, 1.10000, 0.90000, 1.10000, 0.90000
  149,'John Sevie~1', 230.0000,1,   1,   1,   1,1.03452, -12.9095, 1.10000, 0.90000, 1.10000, 0.90000
  150,'John Sevie~2', 500.0000,1,   1,   1,   1,1.04491, -10.9636, 1.10000, 0.90000, 1.10000, 0.90000
0 / END OF BUS DATA, BEGIN LOAD DATA
    2,'1 ',1,   1,   1,   184.310,    52.528,     0.000,     0.000,     0.000,     0.000,   1,1
    3,'1 ',1,   1,   1,   165.516,    47.172,     0.000,     0.000,     0.000,     0.000,   1,1
    4,'1 ',1,   1,   1,   156.812,    44.691,     0.000,     0.000,     0.000,     0.000,   1,1
    5,'1 ',1,   1,   1,   168.446,    48.007,     0.000,     0.000,     0.000,     0.000,   1,1
    6,'1 ',1,   1,   1,   156.888,    44.713,     0.000,     0.000,     0.000,     0.000,   1,1
    7,'1 ',1,   1,   1,   134.580,    38.355,     0.000,     0.000,     0.000,     0.000,   1,1
    8,'1 ',1,   1,   1,   195.400,    55.689,     0.000,     0.000,     0.000,     0.000,   1,1
    9,'1 ',1,   1,   1,   176.314,    50.249,     0.000,     0.000,     0.000,     0.000,   1,1
   10,'1 ',1,   1,   1,    72.722,    20.726,     0.000,     0.000,     0.000,     0.000,   1,1
   11,'1 ',1,   1,   1,   189.926,    54.129,     0.000,     0.000,     0.000,     0.000,   1,1
   12,'1 ',1,   1,   1,   125.302,    35.711,     0.000,     0.000,     0.000,     0.000,   1,1
   13,'1 ',1,   1,   1,   177.272,    50.523,     0.000,     0.000,     0.000,     0.000,   1,1
   14,'1 ',1,   1,   1,   199.170,    56.763,     0.000,     0.000,     0.000,     0.000,   1,1
   15,'1 ',1,   1,   1,   178.438,    50.855,     0.000,     0.000,     0.000,     0.000,   1,1
   16,'1 ',1,   1,   1,   119.770,    34.134,     0.000,     0.000,     0.000,     0.000,   1,1
   17,'1 ',1,   1,   1,   162.894,    46.425,     0.000,     0.000,     0.000,     0.000,   1,1
   18,'1 ',1,   1,   1,   129.658,    36.953,     0.000,     0.000,     0.000,     0.000,   1,1
   19,'1 ',1,   1,   1,   161.670,    46.076,     0.000,     0.000,     0.000,     0.000,   1,1
   20,'1 ',1,   1,   1,    99.260,    28.289,     0.000,     0.000,     0.000,     0.000,   1,1
   21,'1 ',1,   1,   1,   180.088,    51.325,     0.000,     0.000,     0.000,     0.000,   1,1
   22,'1 ',1,   1,   1,   194.992,    55.573,     0.000,     0.000,     0.000,     0.000,   1,1
   23,'1 ',1,   1,   1,   187.178,    53.346,     0.000,     0.000,     0.000,     0.000,   1,1
   24,'1 ',1,   1,   1,    60.742,    17.311,     0.000,     0.000,     0.000,     0.000,   1,1
   25,'1 ',1,   1,   1,    39.542,    11.269,     0.000,     0.000,     0.000,     0.000,   1,1
   26,'1 ',1,   1,   1,   161.774,    46.106,     0.000,     0.000,     0.000,     0.000,   1,1
   27,'1 ',1,   1,   1,   199.086,    56.740,     0.000,     0.000,     0.000,     0.000,   1,1
   28,'1 ',1,   1,   1,   131.124,    37.370,     0.000,     0.000,     0.000,     0.000,   1,1
   29,'1 ',1,   1,   1,   141.478,    40.321,     0.000,     0.000,     0.000,     0.000,   1,1
   30,'1 ',1,   1,   1,   149.510,    42.610,     0.000,     0.000,     0.000,     0.000,   1,1
   31,'1 ',1,   1,   1,   153.822,    43.839,     0.000,     0.000,     0.000,     0.000,   1,1
   32,'1 ',1,   1,   1,   167.516,    47.742,     0.000,     0.000,     0.000,     0.000,   1,1
   33,'1 ',1,   1,   1,   199.092,    56.741,     0.000,     0.000,     0.000,     0.000,   1,1
   34,'1 ',1,   1,   1,   158.008,    45.032,     0.000,     0.000,     0.000,     0.000,   1,1
   35,'1 ',1,   1,   1,   166.046,    47.323,     0.000,     0.000,     0.000,     0.000,   1,1
   36,'1 ',1,   1,   1,    10.004,     2.851,     0.000,     0.000,     0.000,     0.000,   1,1
   37,'1 ',1,   1,   1,    87.526,    24.945,     0.000,     0.000,     0.000,     0.000,   1,1
   38,'1 ',1,   1,   1,    42.842,    12.210,     0.000,     0.000,     0.000,     0.000,   1,1
   39,'1 ',1,   1,   1,    68.288,    19.462,     0.000,     0.000,     0.000,     0.000,   1,1
   40,'1 ',1,   1,   1,   186.836,    53.248,     0.000,     0.000,     0.000,     0.000,   1,1
   41,'1 ',1,   1,   1,   161.228,    45.950,     0.000,     0.000,     0.000,     0.000,   1,1
   42,'1 ',1,   1,   1,   155.942,    44.443,     0.000,     0.000,     0.000,     0.000,   1,1
   43,'1 ',1,   1,   1,   188.776,    53.801,     0.000,     0.000,     0.000,     0.000,   1,1
   44,'1 ',1,   1,   1,   114.860,    32.735,     0.000,     0.000,     0.000,     0.000,   1,1
   45,'1 ',1,   1,   1,   197.410,    56.262,     0.000,     0.000,     0.000,     0.000,   1,1
   46,'1 ',1,   1,   1,    93.462,    26.637,     0.000,     0.000,     0.000,     0.000,   1,1
   47,'1 ',1,   1,   1,   181.602,    51.757,     0.000,     0.000,     0.000,     0.000,   1,1
   48,'1 ',1,   1,   1,    31.398,     8.948,     0.000,     0.000,     0.000,     0.000,   1,1
   49,'1 ',1,   1,   1,   199.462,    56.847,     0.000,     0.000,     0.000,     0.000,   1,1
   50,'1 ',1,   1,   1,   154.506,    44.034,     0.000,     0.000,     0.000,     0.000,   1,1
   51,'1 ',1,   1,   1,   179.204,    51.073,     0.000,     0.000,     0.000,     0.000,   1,1
   52,'1 ',1,   1,   1,   126.818,    36.143,     0.000,     0.000,     0.000,     0.000,   1,1
   53,'1 ',1,   1,   1,   184.312,    52.529,     0.000,     0.000,     0.000,     0.000,   1,1
   54,'1 ',1,   1,   1,   185.602,    52.897,     0.000,     0.000,     0.000,     0.000,   1,1
   55,'1 ',1,   1,   1,   112.628,    32.099,     0.000,     0.000,     0.000,     0.000,   1,1
   56,'1 ',1,   1,   1,   176.998,    50.444,     0.000,     0.000,     0.000,     0.000,   1,1
   57,'1 ',1,   1,   1,   129.658,    36.953,     0.000,     0.000,     0.000,     0.000,   1,1
   58,'1 ',1,   1,   1,    66.006,    18.812,     0.000,     0.000,     0.000,     0.000,   1,1
   59,'1 ',1,   1,   1,   121.514,    34.631,     0.000,     0.000,     0.000,     0.000,   1,1
   60,'1 ',1,   1,   1,   124.074,    35.361,     0.000,     0.000,     0.000,     0.000,   1,1
   61,'1 ',1,   1,   1,   131.734,    37.544,     0.000,     0.000,     0.000,     0.000,   1,1
   62,'1 ',1,   1,   1,   166.176,    47.360,     0.000,     0.000,     0.000,     0.000,   1,1
   63,'1 ',1,   1,   1,   185.436,    52.849,     0.000,     0.000,     0.000,     0.000,   1,1
   64,'1 ',1,   1,   1,   193.856,    55.249,     0.000,     0.000,     0.000,     0.000,   1,1
   65,'1 ',1,   1,   1,   118.736,    33.840,     0.000,     0.000,     0.000,     0.000,   1,1
   66,'1 ',1,   1,   1,    88.778,    25.302,     0.000,     0.000,     0.000,     0.000,   1,1
   67,'1 ',1,   1,   1,   154.146,    43.932,     0.000,     0.000,     0.000,     0.000,   1,1
   68,'1 ',1,   1,   1,    66.688,    19.006,     0.000,     0.000,     0.000,     0.000,   1,1
   69,'1 ',1,   1,   1,    64.746,    18.453,     0.000,     0.000,     0.000,     0.000,   1,1
   70,'1 ',1,   1,   1,    33.902,     9.662,     0.000,     0.000,     0.000,     0.000,   1,1
   71,'1 ',1,   1,   1,   197.850,    56.387,     0.000,     0.000,     0.000,     0.000,   1,1
   72,'1 ',1,   1,   1,   166.176,    47.360,     0.000,     0.000,     0.000,     0.000,   1,1
   73,'1 ',1,   1,   1,    87.926,    25.059,     0.000,     0.000,     0.000,     0.000,   1,1
   74,'1 ',1,   1,   1,   173.844,    49.546,     0.000,     0.000,     0.000,     0.000,   1,1
   75,'1 ',1,   1,   1,   146.928,    41.874,     0.000,     0.000,     0.000,     0.000,   1,1
   76,'1 ',1,   1,   1,   168.554,    48.038,     0.000,     0.000,     0.000,     0.000,   1,1
   77,'1 ',1,   1,   1,   147.632,    42.075,     0.000,     0.000,     0.000,     0.000,   1,1
   78,'1 ',1,   1,   1,   177.724,    50.651,     0.000,     0.000,     0.000,     0.000,   1,1
   79,'1 ',1,   1,   1,   191.228,    54.500,     0.000,     0.000,     0.000,     0.000,   1,1
   80,'1 ',1,   1,   1,   167.842,    47.835,     0.000,     0.000,     0.000,     0.000,   1,1
   81,'1 ',1,   1,   1,   163.738,    46.665,     0.000,     0.000,     0.000,     0.000,   1,1
   82,'1 ',1,   1,   1,   152.562,    43.480,     0.000,     0.000,     0.000,     0.000,   1,1
   83,'1 ',1,   1,   1,    83.508,    23.800,     0.000,     0.000,     0.000,     0.000,   1,1
   84,'1 ',1,   1,   1,    67.184,    19.147,     0.000,     0.000,     0.000,     0.000,   1,1
   85,'1 ',1,   1,   1,    64.874,    18.489,     0.000,     0.000,     0.000,     0.000,   1,1
   86,'1 ',1,   1,   1,   186.896,    53.265,     0.000,     0.000,     0.000,     0.000,   1,1
   87,'1 ',1,   1,   1,    96.146,    27.402,     0.000,     0.000,     0.000,     0.000,   1,1
   88,'1 ',1,   1,   1,    65.710,    18.727,     0.000,     0.000,     0.000,     0.000,   1,1
   89,'1 ',1,   1,   1,   179.488,    51.154,     0.000,     0.000,     0.000,     0.000,   1,1
   90,'1 ',1,   1,   1,   198.932,    56.696,     0.000,     0.000,     0.000,     0.000,   1,1
   91,'1 ',1,   1,   1,    65.648,    18.710,     0.000,     0.000,     0.000,     0.000,   1,1
0 / END OF LOAD DATA, BEGIN FIXED SHUNT DATA
0 / END OF FIXED SHUNT DATA, BEGIN GENERATOR DATA
    1,'1 ',  1098.165,   140.740,   952.770,  -186.225,1.04000,    0,  2246.860,   0.00000,   1.00000,   0.00000,   0.00000,1.00000,1,  100.0,  2042.600,   612.780,   1,1.0000,   0,1.0000,   0,1.0000,   0,1.0000,0, 1.0000
  110,'1 ',   366.713,   113.925,   382.297,   -43.964,1.04000,    0,   751.410,   0.00000,   1.00000,   0.00000,   0.00000,1.00000,1,  100.0,   683.100,   204.930,   1,1.0000,   0,1.0000,   0,1.0000,   0,1.0000,0, 1.0000
  111,'1 ',   243.831,    75.750,   174.635,   -22.215,1.04000,    0,   499.620,   0.00000,   1.00000,   0.00000,   0.00000,1.00000,1,  100.0,   454.200,   136.260,   1,1.0000,   0,1.0000,   0,1.0000,   0,1.0000,0, 1.0000
  112,'1 ',   692.089,   215.008,   601.347,  -117.537,1.04000,    0,  1418.120,   0.00000,   1.00000,   0.00000,   0.00000,1.00000,1,  100.0,  1289.200,   386.760,   1,1.0000,   0,1.0000,   0,1.0000,   0,1.0000,0, 1.0000
  113,'1 ',   340.032,   102.567,   354.483,   -40.766,1.04000,    0,   696.740,   0.00000,   1.00000,   0.00000,   0.00000,1.00000,1,  100.0,   633.400,   190.020,   1,1.0000,   0,1.0000,   0,1.0000,   0,1.0000,0, 1.0000
  114,'1 ',   340.032,   102.567,   354.483,   -40.766,1.04000,    0,   696.740,   0.00000,   1.00000,   0.00000,   0.00000,1.00000,1,  100.0,   633.400,   190.020,   1,1.0000,   0,1.0000,   0,1.0000,   0,1.0000,0, 1.0000
  115,'1 ',   147.737,    44.564,   105.812,   -13.460,1.04000,    0,   302.720,   0.00000,   1.00000,   0.00000,   0.00000,1.00000,1,  100.0,   275.200,    82.560,   1,1.0000,   0,1.0000,   0,1.0000,   0,1.0000,0, 1.0000
  116,'1 ',   364.619,    46.785,   380.113,   -43.713,1.04000,    0,   747.120,   0.00000,   1.00000,   0.00000,   0.00000,1.00000,1,  100.0,   679.200,   203.760,   1,1.0000,   0,1.0000,   0,1.0000,   0,1.0000,0, 1.0000
  117,'1 ',   364.619,    46.785,   380.113,   -43.713,1.04000,    0,   747.120,   0.00000,   1.00000,   0.00000,   0.00000,1.00000,1,  100.0,   679.200,   203.760,   1,1.0000,   0,1.0000,   0,1.0000,   0,1.0000,0, 1.0000
  118,'1 ',   364.619,    46.785,   380.113,   -43.713,1.04000,    0,   747.120,   0.00000,   1.00000,   0.00000,   0.00000,1.00000,1,  100.0,   679.200,   203.760,   1,1.0000,   0,1.0000,   0,1.0000,   0,1.0000,0, 1.0000
  119,'1 ',  1096.542,   140.700,   952.770,  -186.225,1.04000,    0,  2246.860,   0.00000,   1.00000,   0.00000,   0.00000,1.00000,1,  100.0,  2042.600,   612.780,   1,1.0000,   0,1.0000,   0,1.0000,   0,1.0000,0, 1.0000
  120,'1 ',   238.221,    56.251,   170.617,   -21.703,1.04000,    0,   488.125,   0.00000,   1.00000,   0.00000,   0.00000,1.00000,1,  100.0,   443.750,   133.125,   1,1.0000,   0,1.0000,   0,1.0000,   0,1.0000,0, 1.0000
  121,'1 ',   238.221,    56.251,   170.617,   -21.703,1.04000,    0,   488.125,   0.00000,   1.00000,   0.00000,   0.00000,1.00000,1,  100.0,   443.750,   133.125,   1,1.0000,   0,1.0000,   0,1.0000,   0,1.0000,0, 1.0000
  122,'1 ',   711.308,   167.960,   618.045,  -120.800,1.04000,    0,  1457.500,   0.00000,   1.00000,   0.00000,   0.00000,1.00000,1,  100.0,  1325.000,   397.500,   1,1.0000,   0,1.0000,   0,1.0000,   0,1.0000,0, 1.0000
  123,'1 ',   711.308,   167.960,   618.045,  -120.800,1.04000,    0,  1457.500,   0.00000,   1.00000,   0.00000,   0.00000,1.00000,1,  100.0,  1325.000,   397.500,   1,1.0000,   0,1.0000,   0,1.0000,   0,1.0000,0, 1.0000
  124,'1 ',   363.733,   107.580,   379.190,   -43.608,1.04000,    0,   745.305,   0.00000,   1.00000,   0.00000,   0.00000,1.00000,1,  100.0,   677.550,   203.265,   1,1.0000,   0,1.0000,   0,1.0000,   0,1.0000,0, 1.0000
  125,'1 ',   363.733,   107.580,   379.190,   -43.608,1.04000,    0,   745.305,   0.00000,   1.00000,   0.00000,   0.00000,1.00000,1,  100.0,   677.550,   203.265,   1,1.0000,   0,1.0000,   0,1.0000,   0,1.0000,0, 1.0000
  126,'1 ',   363.733,   107.580,   379.190,   -43.608,1.04000,    0,   745.305,   0.00000,   1.00000,   0.00000,   0.00000,1.00000,1,  100.0,   677.550,   203.265,   1,1.0000,   0,1.0000,   0,1.0000,   0,1.0000,0, 1.0000
  127,'1 ',   363.733,   107.580,   379.190,   -43.608,1.04000,    0,   745.305,   0.00000,   1.00000,   0.00000,   0.00000,1.00000,1,  100.0,   677.550,   203.265,   1,1.0000,   0,1.0000,   0,1.0000,   0,1.0000,0, 1.0000
  128,'1 ',   544.889,   161.159,   473.447,   -92.537,1.04000,    0,  1116.500,   0.00000,   1.00000,   0.00000,   0.00000,1.00000,1,  100.0,  1015.000,   304.500,   1,1.0000,   0,1.0000,   0,1.0000,   0,1.0000,0, 1.0000
  129,'1 ',   184.725,    45.446,   132.303,   -16.830,1.04000,    0,   378.510,   0.00000,   1.00000,   0.00000,   0.00000,1.00000,1,  100.0,   344.100,   103.230,   1,1.0000,   0,1.0000,   0,1.0000,   0,1.0000,0, 1.0000
  130,'1 ',   427.858,    67.206,   306.439,   -38.981,1.04000,    0,   876.700,   0.00000,   1.00000,   0.00000,   0.00000,1.00000,1,  100.0,   797.000,   239.100,   1,1.0000,   0,1.0000,   0,1.0000,   0,1.0000,0, 1.0000
  131,'1 ',   427.858,    67.206,   306.439,   -38.981,1.04000,    0,   876.700,   0.00000,   1.00000,   0.00000,   0.00000,1.00000,1,  100.0,   797.000,   239.100,   1,1.0000,   0,1.0000,   0,1.0000,   0,1.0000,0, 1.0000
  132,'1 ',   427.858,    67.206,   306.439,   -38.981,1.04000,    0,   876.700,   0.00000,   1.00000,   0.00000,   0.00000,1.00000,1,  100.0,   797.000,   239.100,   1,1.0000,   0,1.0000,   0,1.0000,   0,1.0000,0, 1.0000
  133,'1 ',   996.073,   156.458,   683.435,  -150.885,1.04000,    0,  2040.995,   0.00000,   1.00000,   0.00000,   0.00000,1.00000,1,  100.0,  1855.450,   556.635,   1,1.0000,   0,1.0000,   0,1.0000,   0,1.0000,0, 1.0000
  134,'1 ',   996.073,   156.458,   683.435,  -150.885,1.04000,    0,  2040.995,   0.00000,   1.00000,   0.00000,   0.00000,1.00000,1,  100.0,  1855.450,   556.635,   1,1.0000,   0,1.0000,   0,1.0000,   0,1.0000,0, 1.0000
  135,'1 ',    24.533,    17.359,    17.571,    -2.235,1.04000,    0,    50.270,   0.00000,   1.00000,   0.00000,   0.00000,1.00000,1,  100.0,    45.700,    13.710,   1,1.0000,   0,1.0000,   0,1.0000,   0,1.0000,0, 1.0000
0 / END OF GENERATOR DATA, BEGIN BRANCH DATA
    2,    14,'1 ', 0.00546, 0.03890,0.07137, 402.36,9999.00,9999.00,  0.00000,  0.00000,  0.00000,  0.00000,1,1,   0.0,   1,1.0000,   0,1.0000,   0,1.0000,   0,1.0000
    2,    21,'1 ', 0.00318, 0.02264,0.04154, 402.36,9999.00,9999.00,  0.00000,  0.00000,  0.00000,  0.00000,1,1,   0.0,   1,1.0000,   0,1.0000,   0,1.0000,   0,1.0000
   19,     3,'1 ', 0.00545, 0.03880,0.07119, 402.36,9999.00,9999.00,  0.00000,  0.00000,  0.00000,  0.00000,1,1,   0.0,   1,1.0000,   0,1.0000,   0,1.0000,   0,1.0000
  141,     3,'1 ', 0.00281, 0.02000,0.03669, 402.36,9999.00,9999.00,  0.00000,  0.00000,  0.00000,  0.00000,1,1,   0.0,   1,1.0000,   0,1.0000,   0,1.0000,   0,1.0000
    4,    18,'1 ', 0.00118, 0.00838,0.01538, 402.36,9999.00,9999.00,  0.00000,  0.00000,  0.00000,  0.00000,1,1,   0.0,   1,1.0000,   0,1.0000,   0,1.0000,   0,1.0000
    4,    19,'1 ', 0.00147, 0.01048,0.01922, 402.36,9999.00,9999.00,  0.00000,  0.00000,  0.00000,  0.00000,1,1,   0.0,   1,1.0000,   0,1.0000,   0,1.0000,   0,1.0000
    4,    30,'1 ', 0.00111, 0.00790,0.01449, 402.36,9999.00,9999.00,  0.00000,  0.00000,  0.00000,  0.00000,1,1,   0.0,   1,1.0000,   0,1.0000,   0,1.0000,   0,1.0000
    5,    16,'1 ', 0.00254, 0.01812,0.03325, 402.36,9999.00,9999.00,  0.00000,  0.00000,  0.00000,  0.00000,1,1,   0.0,   1,1.0000,   0,1.0000,   0,1.0000,   0,1.0000
    5,    30,'1 ', 0.00163, 0.01161,0.02130, 402.36,9999.00,9999.00,  0.00000,  0.00000,  0.00000,  0.00000,1,1,   0.0,   1,1.0000,   0,1.0000,   0,1.0000,   0,1.0000
    6,    13,'1 ', 0.00282, 0.02007,0.03682, 402.36,9999.00,9999.00,  0.00000,  0.00000,  0.00000,  0.00000,1,1,   0.0,   1,1.0000,   0,1.0000,   0,1.0000,   0,1.0000
    6,    14,'1 ', 0.00521, 0.03709,0.06805, 402.36,9999.00,9999.00,  0.00000,  0.00000,  0.00000,  0.00000,1,1,   0.0,   1,1.0000,   0,1.0000,   0,1.0000,   0,1.0000
    6,    28,'1 ', 0.00255, 0.01817,0.03334, 402.36,9999.00,9999.00,  0.00000,  0.00000,  0.00000,  0.00000,1,1,   0.0,   1,1.0000,   0,1.0000,   0,1.0000,   0,1.0000
    7,     8,'1 ', 0.00660, 0.04700,0.08623, 402.36,9999.00,9999.00,  0.00000,  0.00000,  0.00000,  0.00000,1,1,   0.0,   1,1.0000,   0,1.0000,   0,1.0000,   0,1.0000
    7,    38,'1 ', 0.00589, 0.04194,0.07695, 402.36,9999.00,9999.00,  0.00000,  0.00000,  0.00000,  0.00000,1,1,   0.0,   1,1.0000,   0,1.0000,   0,1.0000,   0,1.0000
    8,    23,'1 ', 0.00224, 0.01597,0.02929, 402.36,9999.00,9999.00,  0.00000,  0.00000,  0.00000,  0.00000,1,1,   0.0,   1,1.0000,   0,1.0000,   0,1.0000,   0,1.0000
    9,    23,'1 ', 0.00568, 0.04045,0.07421, 402.36,9999.00,9999.00,  0.00000,  0.00000,  0.00000,  0.00000,1,1,   0.0,   1,1.0000,   0,1.0000,   0,1.0000,   0,1.0000
    9,    26,'1 ', 0.00468, 0.03335,0.06118, 402.36,9999.00,9999.00,  0.00000,  0.00000,  0.00000,  0.00000,1,1,   0.0,   1,1.0000,   0,1.0000,   0,1.0000,   0,1.0000
    9,    39,'1 ', 0.00549, 0.03908,0.07170, 402.36,9999.00,9999.00,  0.00000,  0.00000,  0.00000,  0.00000,1,1,   0.0,   1,1.0000,   0,1.0000,   0,1.0000,   0,1.0000
   10,    25,'1 ', 0.00591, 0.04211,0.07726, 402.36,9999.00,9999.00,  0.00000,  0.00000,  0.00000,  0.00000,1,1,   0.0,   1,1.0000,   0,1.0000,   0,1.0000,   0,1.0000
   10,   141,'1 ', 0.00437, 0.03115,0.05716, 402.36,9999.00,9999.00,  0.00000,  0.00000,  0.00000,  0.00000,1,1,   0.0,   1,1.0000,   0,1.0000,   0,1.0000,   0,1.0000
   11,    14,'1 ', 0.00252, 0.01798,0.03299, 402.36,9999.00,9999.00,  0.00000,  0.00000,  0.00000,  0.00000,1,1,   0.0,   1,1.0000,   0,1.0000,   0,1.0000,   0,1.0000
   12,    13,'1 ', 0.00516, 0.03674,0.06741, 402.36,9999.00,9999.00,  0.00000,  0.00000,  0.00000,  0.00000,1,1,   0.0,   1,1.0000,   0,1.0000,   0,1.0000,   0,1.0000
   12,   143,'1 ', 0.00651, 0.04634,0.08502, 402.36,9999.00,9999.00,  0.00000,  0.00000,  0.00000,  0.00000,1,1,   0.0,   1,1.0000,   0,1.0000,   0,1.0000,   0,1.0000
   13,    16,'1 ', 0.00270, 0.01925,0.03532, 402.36,9999.00,9999.00,  0.00000,  0.00000,  0.00000,  0.00000,1,1,   0.0,   1,1.0000,   0,1.0000,   0,1.0000,   0,1.0000
   15,    17,'1 ', 0.00250, 0.01781,0.03267, 402.36,9999.00,9999.00,  0.00000,  0.00000,  0.00000,  0.00000,1,1,   0.0,   1,1.0000,   0,1.0000,   0,1.0000,   0,1.0000
  141,    15,'1 ', 0.00266, 0.01897,0.03481, 402.36,9999.00,9999.00,  0.00000,  0.00000,  0.00000,  0.00000,1,1,   0.0,   1,1.0000,   0,1.0000,   0,1.0000,   0,1.0000
   16,    26,'1 ', 0.00314, 0.02239,0.04107, 402.36,9999.00,9999.00,  0.00000,  0.00000,  0.00000,  0.00000,1,1,   0.0,   1,1.0000,   0,1.0000,   0,1.0000,   0,1.0000
   17,    21,'1 ', 0.00185, 0.01316,0.02415, 402.36,9999.00,9999.00,  0.00000,  0.00000,  0.00000,  0.00000,1,1,   0.0,   1,1.0000,   0,1.0000,   0,1.0000,   0,1.0000
  141,    17,'1 ', 0.00247, 0.01758,0.03226, 402.36,9999.00,9999.00,  0.00000,  0.00000,  0.00000,  0.00000,1,1,   0.0,   1,1.0000,   0,1.0000,   0,1.0000,   0,1.0000
  141,    17,'2 ', 0.00247, 0.01758,0.03226, 402.36,9999.00,9999.00,  0.00000,  0.00000,  0.00000,  0.00000,1,1,   0.0,   1,1.0000,   0,1.0000,   0,1.0000,   0,1.0000
   18,    22,'1 ', 0.00071, 0.00506,0.00928, 402.36,9999.00,9999.00,  0.00000,  0.00000,  0.00000,  0.00000,1,1,   0.0,   1,1.0000,   0,1.0000,   0,1.0000,   0,1.0000
   19,    23,'1 ', 0.00202, 0.01436,0.02635, 402.36,9999.00,9999.00,  0.00000,  0.00000,  0.00000,  0.00000,1,1,   0.0,   1,1.0000,   0,1.0000,   0,1.0000,   0,1.0000
   83,    20,'1 ', 0.00642, 0.04572,0.08389, 402.36,9999.00,9999.00,  0.00000,  0.00000,  0.00000,  0.00000,1,1,   0.0,   1,1.0000,   0,1.0000,   0,1.0000,   0,1.0000
   20,   143,'1 ', 0.00686, 0.04887,0.08966, 402.36,9999.00,9999.00,  0.00000,  0.00000,  0.00000,  0.00000,1,1,   0.0,   1,1.0000,   0,1.0000,   0,1.0000,   0,1.0000
   21,    29,'1 ', 0.00112, 0.00799,0.01466, 402.36,9999.00,9999.00,  0.00000,  0.00000,  0.00000,  0.00000,1,1,   0.0,   1,1.0000,   0,1.0000,   0,1.0000,   0,1.0000
   22,    29,'1 ', 0.00059, 0.00419,0.00769, 402.36,9999.00,9999.00,  0.00000,  0.00000,  0.00000,  0.00000,1,1,   0.0,   1,1.0000,   0,1.0000,   0,1.0000,   0,1.0000
   22,    30,'1 ', 0.00119, 0.00850,0.01560, 402.36,9999.00,9999.00,  0.00000,  0.00000,  0.00000,  0.00000,1,1,   0.0,   1,1.0000,   0,1.0000,   0,1.0000,   0,1.0000
   22,    30,'2 ', 0.00119, 0.00850,0.01560, 402.36,9999.00,9999.00,  0.00000,  0.00000,  0.00000,  0.00000,1,1,   0.0,   1,1.0000,   0,1.0000,   0,1.0000,   0,1.0000
   84,    24,'1 ', 0.00501, 0.03571,0.06552, 402.36,9999.00,9999.00,  0.00000,  0.00000,  0.00000,  0.00000,1,1,   0.0,   1,1.0000,   0,1.0000,   0,1.0000,   0,1.0000
   24,   143,'1 ', 0.00068, 0.00482,0.00884, 402.36,9999.00,9999.00,  0.00000,  0.00000,  0.00000,  0.00000,1,1,   0.0,   1,1.0000,   0,1.0000,   0,1.0000,   0,1.0000
   90,    25,'1 ', 0.00514, 0.03663,0.06721, 402.36,9999.00,9999.00,  0.00000,  0.00000,  0.00000,  0.00000,1,1,   0.0,   1,1.0000,   0,1.0000,   0,1.0000,   0,1.0000
   91,    25,'1 ', 0.00611, 0.04351,0.07983, 402.36,9999.00,9999.00,  0.00000,  0.00000,  0.00000,  0.00000,1,1,   0.0,   1,1.0000,   0,1.0000,   0,1.0000,   0,1.0000
   89,    26,'1 ', 0.00661, 0.04705,0.08632, 402.36,9999.00,9999.00,  0.00000,  0.00000,  0.00000,  0.00000,1,1,   0.0,   1,1.0000,   0,1.0000,   0,1.0000,   0,1.0000
  140,    27,'1 ', 0.00263, 0.01870,0.03430, 402.36,9999.00,9999.00,  0.00000,  0.00000,  0.00000,  0.00000,1,1,   0.0,   1,1.0000,   0,1.0000,   0,1.0000,   0,1.0000
   28,    29,'1 ', 0.00109, 0.00775,0.01422, 402.36,9999.00,9999.00,  0.00000,  0.00000,  0.00000,  0.00000,1,1,   0.0,   1,1.0000,   0,1.0000,   0,1.0000,   0,1.0000
   31,    38,'1 ', 0.00561, 0.03996,0.07331, 402.36,9999.00,9999.00,  0.00000,  0.00000,  0.00000,  0.00000,1,1,   0.0,   1,1.0000,   0,1.0000,   0,1.0000,   0,1.0000
   31,    40,'1 ', 0.00358, 0.02551,0.04679, 402.36,9999.00,9999.00,  0.00000,  0.00000,  0.00000,  0.00000,1,1,   0.0,   1,1.0000,   0,1.0000,   0,1.0000,   0,1.0000
   31,    41,'1 ', 0.00388, 0.02764,0.05072, 402.36,9999.00,9999.00,  0.00000,  0.00000,  0.00000,  0.00000,1,1,   0.0,   1,1.0000,   0,1.0000,   0,1.0000,   0,1.0000
   32,    36,'1 ', 0.00856, 0.06100,0.11191, 402.36,9999.00,9999.00,  0.00000,  0.00000,  0.00000,  0.00000,1,1,   0.0,   1,1.0000,   0,1.0000,   0,1.0000,   0,1.0000
   32,    40,'1 ', 0.00178, 0.01265,0.02320, 402.36,9999.00,9999.00,  0.00000,  0.00000,  0.00000,  0.00000,1,1,   0.0,   1,1.0000,   0,1.0000,   0,1.0000,   0,1.0000
  145,    32,'1 ', 0.00242, 0.01721,0.03157, 402.36,9999.00,9999.00,  0.00000,  0.00000,  0.00000,  0.00000,1,1,   0.0,   1,1.0000,   0,1.0000,   0,1.0000,   0,1.0000
   33,    37,'1 ', 0.00539, 0.03840,0.07046, 402.36,9999.00,9999.00,  0.00000,  0.00000,  0.00000,  0.00000,1,1,   0.0,   1,1.0000,   0,1.0000,   0,1.0000,   0,1.0000
   61,    33,'1 ', 0.00607, 0.04322,0.07930, 402.36,9999.00,9999.00,  0.00000,  0.00000,  0.00000,  0.00000,1,1,   0.0,   1,1.0000,   0,1.0000,   0,1.0000,   0,1.0000
   35,    34,'1 ', 0.00334, 0.02380,0.04367, 402.36,9999.00,9999.00,  0.00000,  0.00000,  0.00000,  0.00000,1,1,   0.0,   1,1.0000,   0,1.0000,   0,1.0000,   0,1.0000
   34,    36,'1 ', 0.00527, 0.03754,0.06887, 402.36,9999.00,9999.00,  0.00000,  0.00000,  0.00000,  0.00000,1,1,   0.0,   1,1.0000,   0,1.0000,   0,1.0000,   0,1.0000
   35,    37,'1 ', 0.00460, 0.03276,0.06010, 402.36,9999.00,9999.00,  0.00000,  0.00000,  0.00000,  0.00000,1,1,   0.0,   1,1.0000,   0,1.0000,   0,1.0000,   0,1.0000
   35,   145,'1 ', 0.00099, 0.00706,0.01295, 402.36,9999.00,9999.00,  0.00000,  0.00000,  0.00000,  0.00000,1,1,   0.0,   1,1.0000,   0,1.0000,   0,1.0000,   0,1.0000
   35,   145,'2 ', 0.00099, 0.00706,0.01295, 402.36,9999.00,9999.00,  0.00000,  0.00000,  0.00000,  0.00000,1,1,   0.0,   1,1.0000,   0,1.0000,   0,1.0000,   0,1.0000
   37,    38,'1 ', 0.00504, 0.03592,0.06589, 402.36,9999.00,9999.00,  0.00000,  0.00000,  0.00000,  0.00000,1,1,   0.0,   1,1.0000,   0,1.0000,   0,1.0000,   0,1.0000
  140,    39,'1 ', 0.00378, 0.02696,0.04946, 402.36,9999.00,9999.00,  0.00000,  0.00000,  0.00000,  0.00000,1,1,   0.0,   1,1.0000,   0,1.0000,   0,1.0000,   0,1.0000
   40,    41,'1 ', 0.00173, 0.01229,0.02255, 402.36,9999.00,9999.00,  0.00000,  0.00000,  0.00000,  0.00000,1,1,   0.0,   1,1.0000,   0,1.0000,   0,1.0000,   0,1.0000
  145,    40,'1 ', 0.00218, 0.01555,0.02852, 402.36,9999.00,9999.00,  0.00000,  0.00000,  0.00000,  0.00000,1,1,   0.0,   1,1.0000,   0,1.0000,   0,1.0000,   0,1.0000
   42,    43,'1 ', 0.00133, 0.00950,0.01743, 402.36,9999.00,9999.00,  0.00000,  0.00000,  0.00000,  0.00000,1,1,   0.0,   1,1.0000,   0,1.0000,   0,1.0000,   0,1.0000
   44,    42,'1 ', 0.00585, 0.04163,0.07638, 402.36,9999.00,9999.00,  0.00000,  0.00000,  0.00000,  0.00000,1,1,   0.0,   1,1.0000,   0,1.0000,   0,1.0000,   0,1.0000
   45,    42,'1 ', 0.00331, 0.02359,0.04328, 402.36,9999.00,9999.00,  0.00000,  0.00000,  0.00000,  0.00000,1,1,   0.0,   1,1.0000,   0,1.0000,   0,1.0000,   0,1.0000
   47,    43,'1 ', 0.00291, 0.02073,0.03803, 402.36,9999.00,9999.00,  0.00000,  0.00000,  0.00000,  0.00000,1,1,   0.0,   1,1.0000,   0,1.0000,   0,1.0000,   0,1.0000
   44,   149,'1 ', 0.00359, 0.02554,0.04685, 402.36,9999.00,9999.00,  0.00000,  0.00000,  0.00000,  0.00000,1,1,   0.0,   1,1.0000,   0,1.0000,   0,1.0000,   0,1.0000
   45,    48,'1 ', 0.00360, 0.02565,0.04706, 402.36,9999.00,9999.00,  0.00000,  0.00000,  0.00000,  0.00000,1,1,   0.0,   1,1.0000,   0,1.0000,   0,1.0000,   0,1.0000
   46,    47,'1 ', 0.00354, 0.02518,0.04620, 402.36,9999.00,9999.00,  0.00000,  0.00000,  0.00000,  0.00000,1,1,   0.0,   1,1.0000,   0,1.0000,   0,1.0000,   0,1.0000
   46,   149,'1 ', 0.00221, 0.01574,0.02887, 402.36,9999.00,9999.00,  0.00000,  0.00000,  0.00000,  0.00000,1,1,   0.0,   1,1.0000,   0,1.0000,   0,1.0000,   0,1.0000
   47,    48,'1 ', 0.00858, 0.06110,0.11210, 402.36,9999.00,9999.00,  0.00000,  0.00000,  0.00000,  0.00000,1,1,   0.0,   1,1.0000,   0,1.0000,   0,1.0000,   0,1.0000
   49,    52,'1 ', 0.00307, 0.02190,0.04018, 402.36,9999.00,9999.00,  0.00000,  0.00000,  0.00000,  0.00000,1,1,   0.0,   1,1.0000,   0,1.0000,   0,1.0000,   0,1.0000
   49,    63,'1 ', 0.00238, 0.01695,0.03110, 402.36,9999.00,9999.00,  0.00000,  0.00000,  0.00000,  0.00000,1,1,   0.0,   1,1.0000,   0,1.0000,   0,1.0000,   0,1.0000
   50,    55,'1 ', 0.00491, 0.03494,0.06410, 402.36,9999.00,9999.00,  0.00000,  0.00000,  0.00000,  0.00000,1,1,   0.0,   1,1.0000,   0,1.0000,   0,1.0000,   0,1.0000
   50,    56,'1 ', 0.00261, 0.01861,0.03415, 402.36,9999.00,9999.00,  0.00000,  0.00000,  0.00000,  0.00000,1,1,   0.0,   1,1.0000,   0,1.0000,   0,1.0000,   0,1.0000
   50,    64,'1 ', 0.00284, 0.02024,0.03713, 402.36,9999.00,9999.00,  0.00000,  0.00000,  0.00000,  0.00000,1,1,   0.0,   1,1.0000,   0,1.0000,   0,1.0000,   0,1.0000
   51,    54,'1 ', 0.00322, 0.02295,0.04211, 402.36,9999.00,9999.00,  0.00000,  0.00000,  0.00000,  0.00000,1,1,   0.0,   1,1.0000,   0,1.0000,   0,1.0000,   0,1.0000
   51,    58,'1 ', 0.00553, 0.03938,0.07224, 402.36,9999.00,9999.00,  0.00000,  0.00000,  0.00000,  0.00000,1,1,   0.0,   1,1.0000,   0,1.0000,   0,1.0000,   0,1.0000
   51,   149,'1 ', 0.00381, 0.02716,0.04983, 402.36,9999.00,9999.00,  0.00000,  0.00000,  0.00000,  0.00000,1,1,   0.0,   1,1.0000,   0,1.0000,   0,1.0000,   0,1.0000
   52,    56,'1 ', 0.00241, 0.01714,0.03145, 402.36,9999.00,9999.00,  0.00000,  0.00000,  0.00000,  0.00000,1,1,   0.0,   1,1.0000,   0,1.0000,   0,1.0000,   0,1.0000
   52,    60,'1 ', 0.00386, 0.02746,0.05038, 402.36,9999.00,9999.00,  0.00000,  0.00000,  0.00000,  0.00000,1,1,   0.0,   1,1.0000,   0,1.0000,   0,1.0000,   0,1.0000
   53,    62,'1 ', 0.00205, 0.01459,0.02676, 402.36,9999.00,9999.00,  0.00000,  0.00000,  0.00000,  0.00000,1,1,   0.0,   1,1.0000,   0,1.0000,   0,1.0000,   0,1.0000
   53,   138,'1 ', 0.00193, 0.01376,0.02525, 402.36,9999.00,9999.00,  0.00000,  0.00000,  0.00000,  0.00000,1,1,   0.0,   1,1.0000,   0,1.0000,   0,1.0000,   0,1.0000
   53,   138,'2 ', 0.00193, 0.01376,0.02525, 402.36,9999.00,9999.00,  0.00000,  0.00000,  0.00000,  0.00000,1,1,   0.0,   1,1.0000,   0,1.0000,   0,1.0000,   0,1.0000
   54,    60,'1 ', 0.00425, 0.03027,0.05554, 402.36,9999.00,9999.00,  0.00000,  0.00000,  0.00000,  0.00000,1,1,   0.0,   1,1.0000,   0,1.0000,   0,1.0000,   0,1.0000
   55,   138,'1 ', 0.00778, 0.05539,0.10163, 402.36,9999.00,9999.00,  0.00000,  0.00000,  0.00000,  0.00000,1,1,   0.0,   1,1.0000,   0,1.0000,   0,1.0000,   0,1.0000
   56,    58,'1 ', 0.00624, 0.04441,0.08147, 402.36,9999.00,9999.00,  0.00000,  0.00000,  0.00000,  0.00000,1,1,   0.0,   1,1.0000,   0,1.0000,   0,1.0000,   0,1.0000
   56,    63,'1 ', 0.00206, 0.01466,0.02689, 402.36,9999.00,9999.00,  0.00000,  0.00000,  0.00000,  0.00000,1,1,   0.0,   1,1.0000,   0,1.0000,   0,1.0000,   0,1.0000
   57,    59,'1 ', 0.00549, 0.03910,0.07173, 402.36,9999.00,9999.00,  0.00000,  0.00000,  0.00000,  0.00000,1,1,   0.0,   1,1.0000,   0,1.0000,   0,1.0000,   0,1.0000
   57,    90,'1 ', 0.00592, 0.04216,0.07735, 402.36,9999.00,9999.00,  0.00000,  0.00000,  0.00000,  0.00000,1,1,   0.0,   1,1.0000,   0,1.0000,   0,1.0000,   0,1.0000
   59,   138,'1 ', 0.00150, 0.01071,0.01965, 402.36,9999.00,9999.00,  0.00000,  0.00000,  0.00000,  0.00000,1,1,   0.0,   1,1.0000,   0,1.0000,   0,1.0000,   0,1.0000
   61,    62,'1 ', 0.00323, 0.02303,0.04225, 402.36,9999.00,9999.00,  0.00000,  0.00000,  0.00000,  0.00000,1,1,   0.0,   1,1.0000,   0,1.0000,   0,1.0000,   0,1.0000
   62,    64,'1 ', 0.00141, 0.01006,0.01846, 402.36,9999.00,9999.00,  0.00000,  0.00000,  0.00000,  0.00000,1,1,   0.0,   1,1.0000,   0,1.0000,   0,1.0000,   0,1.0000
   63,    64,'1 ', 0.00139, 0.00992,0.01820, 402.36,9999.00,9999.00,  0.00000,  0.00000,  0.00000,  0.00000,1,1,   0.0,   1,1.0000,   0,1.0000,   0,1.0000,   0,1.0000
   65,    73,'1 ', 0.00466, 0.03318,0.06087, 402.36,9999.00,9999.00,  0.00000,  0.00000,  0.00000,  0.00000,1,1,   0.0,   1,1.0000,   0,1.0000,   0,1.0000,   0,1.0000
   65,    83,'1 ', 0.00502, 0.03578,0.06565, 402.36,9999.00,9999.00,  0.00000,  0.00000,  0.00000,  0.00000,1,1,   0.0,   1,1.0000,   0,1.0000,   0,1.0000,   0,1.0000
   65,    86,'1 ', 0.00471, 0.03356,0.06158, 402.36,9999.00,9999.00,  0.00000,  0.00000,  0.00000,  0.00000,1,1,   0.0,   1,1.0000,   0,1.0000,   0,1.0000,   0,1.0000
   66,    67,'1 ', 0.00390, 0.02777,0.05095, 402.36,9999.00,9999.00,  0.00000,  0.00000,  0.00000,  0.00000,1,1,   0.0,   1,1.0000,   0,1.0000,   0,1.0000,   0,1.0000
   66,    71,'1 ', 0.00212, 0.01509,0.02769, 402.36,9999.00,9999.00,  0.00000,  0.00000,  0.00000,  0.00000,1,1,   0.0,   1,1.0000,   0,1.0000,   0,1.0000,   0,1.0000
   67,    75,'1 ', 0.00528, 0.03757,0.06893, 402.36,9999.00,9999.00,  0.00000,  0.00000,  0.00000,  0.00000,1,1,   0.0,   1,1.0000,   0,1.0000,   0,1.0000,   0,1.0000
   67,   136,'1 ', 0.00407, 0.02896,0.05313, 402.36,9999.00,9999.00,  0.00000,  0.00000,  0.00000,  0.00000,1,1,   0.0,   1,1.0000,   0,1.0000,   0,1.0000,   0,1.0000
   67,   136,'2 ', 0.00407, 0.02896,0.05313, 402.36,9999.00,9999.00,  0.00000,  0.00000,  0.00000,  0.00000,1,1,   0.0,   1,1.0000,   0,1.0000,   0,1.0000,   0,1.0000
   68,    73,'1 ', 0.00553, 0.03940,0.07228, 402.36,9999.00,9999.00,  0.00000,  0.00000,  0.00000,  0.00000,1,1,   0.0,   1,1.0000,   0,1.0000,   0,1.0000,   0,1.0000
   68,    85,'1 ', 0.00559, 0.03982,0.07306, 402.36,9999.00,9999.00,  0.00000,  0.00000,  0.00000,  0.00000,1,1,   0.0,   1,1.0000,   0,1.0000,   0,1.0000,   0,1.0000
   69,    70,'1 ', 0.00581, 0.04139,0.07594, 402.36,9999.00,9999.00,  0.00000,  0.00000,  0.00000,  0.00000,1,1,   0.0,   1,1.0000,   0,1.0000,   0,1.0000,   0,1.0000
   69,    87,'1 ', 0.00541, 0.03855,0.07074, 402.36,9999.00,9999.00,  0.00000,  0.00000,  0.00000,  0.00000,1,1,   0.0,   1,1.0000,   0,1.0000,   0,1.0000,   0,1.0000
   70,    72,'1 ', 0.00780, 0.05557,0.10196, 402.36,9999.00,9999.00,  0.00000,  0.00000,  0.00000,  0.00000,1,1,   0.0,   1,1.0000,   0,1.0000,   0,1.0000,   0,1.0000
   70,   136,'1 ', 0.00168, 0.01199,0.02199, 402.36,9999.00,9999.00,  0.00000,  0.00000,  0.00000,  0.00000,1,1,   0.0,   1,1.0000,   0,1.0000,   0,1.0000,   0,1.0000
   71,    72,'1 ', 0.00248, 0.01768,0.03243, 402.36,9999.00,9999.00,  0.00000,  0.00000,  0.00000,  0.00000,1,1,   0.0,   1,1.0000,   0,1.0000,   0,1.0000,   0,1.0000
   71,    74,'1 ', 0.00108, 0.00769,0.01411, 402.36,9999.00,9999.00,  0.00000,  0.00000,  0.00000,  0.00000,1,1,   0.0,   1,1.0000,   0,1.0000,   0,1.0000,   0,1.0000
   71,    74,'2 ', 0.00108, 0.00769,0.01411, 402.36,9999.00,9999.00,  0.00000,  0.00000,  0.00000,  0.00000,1,1,   0.0,   1,1.0000,   0,1.0000,   0,1.0000,   0,1.0000
   71,    82,'1 ', 0.00174, 0.01238,0.02271, 402.36,9999.00,9999.00,  0.00000,  0.00000,  0.00000,  0.00000,1,1,   0.0,   1,1.0000,   0,1.0000,   0,1.0000,   0,1.0000
   73,   136,'1 ', 0.00550, 0.03917,0.07187, 402.36,9999.00,9999.00,  0.00000,  0.00000,  0.00000,  0.00000,1,1,   0.0,   1,1.0000,   0,1.0000,   0,1.0000,   0,1.0000
   74,    78,'1 ', 0.00096, 0.00682,0.01252, 402.36,9999.00,9999.00,  0.00000,  0.00000,  0.00000,  0.00000,1,1,   0.0,   1,1.0000,   0,1.0000,   0,1.0000,   0,1.0000
   75,    78,'1 ', 0.00143, 0.01017,0.01866, 402.36,9999.00,9999.00,  0.00000,  0.00000,  0.00000,  0.00000,1,1,   0.0,   1,1.0000,   0,1.0000,   0,1.0000,   0,1.0000
   76,    77,'1 ', 0.00191, 0.01361,0.02497, 402.36,9999.00,9999.00,  0.00000,  0.00000,  0.00000,  0.00000,1,1,   0.0,   1,1.0000,   0,1.0000,   0,1.0000,   0,1.0000
   76,    78,'1 ', 0.00121, 0.00864,0.01586, 402.36,9999.00,9999.00,  0.00000,  0.00000,  0.00000,  0.00000,1,1,   0.0,   1,1.0000,   0,1.0000,   0,1.0000,   0,1.0000
   76,    79,'1 ', 0.00103, 0.00733,0.01345, 402.36,9999.00,9999.00,  0.00000,  0.00000,  0.00000,  0.00000,1,1,   0.0,   1,1.0000,   0,1.0000,   0,1.0000,   0,1.0000
   77,    81,'1 ', 0.00204, 0.01453,0.02666, 402.36,9999.00,9999.00,  0.00000,  0.00000,  0.00000,  0.00000,1,1,   0.0,   1,1.0000,   0,1.0000,   0,1.0000,   0,1.0000
   79,    80,'1 ', 0.00136, 0.00966,0.01772, 402.36,9999.00,9999.00,  0.00000,  0.00000,  0.00000,  0.00000,1,1,   0.0,   1,1.0000,   0,1.0000,   0,1.0000,   0,1.0000
   79,    81,'1 ', 0.00115, 0.00820,0.01504, 402.36,9999.00,9999.00,  0.00000,  0.00000,  0.00000,  0.00000,1,1,   0.0,   1,1.0000,   0,1.0000,   0,1.0000,   0,1.0000
   80,    82,'1 ', 0.00087, 0.00622,0.01141, 402.36,9999.00,9999.00,  0.00000,  0.00000,  0.00000,  0.00000,1,1,   0.0,   1,1.0000,   0,1.0000,   0,1.0000,   0,1.0000
   85,    84,'1 ', 0.00591, 0.04206,0.07716, 402.36,9999.00,9999.00,  0.00000,  0.00000,  0.00000,  0.00000,1,1,   0.0,   1,1.0000,   0,1.0000,   0,1.0000,   0,1.0000
   87,   147,'1 ', 0.00465, 0.03310,0.06073, 402.36,9999.00,9999.00,  0.00000,  0.00000,  0.00000,  0.00000,1,1,   0.0,   1,1.0000,   0,1.0000,   0,1.0000,   0,1.0000
   88,    89,'1 ', 0.00843, 0.06004,0.11016, 402.36,9999.00,9999.00,  0.00000,  0.00000,  0.00000,  0.00000,1,1,   0.0,   1,1.0000,   0,1.0000,   0,1.0000,   0,1.0000
   88,   147,'1 ', 0.00382, 0.02721,0.04992, 402.36,9999.00,9999.00,  0.00000,  0.00000,  0.00000,  0.00000,1,1,   0.0,   1,1.0000,   0,1.0000,   0,1.0000,   0,1.0000
   90,    91,'1 ', 0.00611, 0.04352,0.07984, 402.36,9999.00,9999.00,  0.00000,  0.00000,  0.00000,  0.00000,1,1,   0.0,   1,1.0000,   0,1.0000,   0,1.0000,   0,1.0000
   92,   100,'1 ', 0.00006, 0.00126,0.13886,3585.35,9999.00,9999.00,  0.00000,  0.00000,  0.00000,  0.00000,1,1,   0.0,   1,1.0000,   0,1.0000,   0,1.0000,   0,1.0000
  109,    92,'1 ', 0.00010, 0.00215,0.23729,3585.35,9999.00,9999.00,  0.00000,  0.00000,  0.00000,  0.00000,1,1,   0.0,   1,1.0000,   0,1.0000,   0,1.0000,   0,1.0000
   93,    97,'1 ', 0.00048, 0.01006,1.11050,3585.35,9999.00,9999.00,  0.00000,  0.00000,  0.00000,  0.00000,1,1,   0.0,   1,1.0000,   0,1.0000,   0,1.0000,   0,1.0000
  109,    93,'1 ', 0.00030, 0.00625,0.69030,3585.35,9999.00,9999.00,  0.00000,  0.00000,  0.00000,  0.00000,1,1,   0.0,   1,1.0000,   0,1.0000,   0,1.0000,   0,1.0000
  150,    93,'1 ', 0.00028, 0.00589,0.64955,3585.35,9999.00,9999.00,  0.00000,  0.00000,  0.00000,  0.00000,1,1,   0.0,   1,1.0000,   0,1.0000,   0,1.0000,   0,1.0000
  106,    94,'1 ', 0.00048, 0.01018,1.12392,3585.35,9999.00,9999.00,  0.00000,  0.00000,  0.00000,  0.00000,1,1,   0.0,   1,1.0000,   0,1.0000,   0,1.0000,   0,1.0000
  146,    94,'1 ', 0.00009, 0.00197,0.21765,3585.35,9999.00,9999.00,  0.00000,  0.00000,  0.00000,  0.00000,1,1,   0.0,   1,1.0000,   0,1.0000,   0,1.0000,   0,1.0000
  137,    95,'1 ', 0.00031, 0.00648,0.71484,3585.35,9999.00,9999.00,  0.00000,  0.00000,  0.00000,  0.00000,1,1,   0.0,   1,1.0000,   0,1.0000,   0,1.0000,   0,1.0000
  144,    95,'1 ', 0.00048, 0.01006,1.11046,3585.35,9999.00,9999.00,  0.00000,  0.00000,  0.00000,  0.00000,1,1,   0.0,   1,1.0000,   0,1.0000,   0,1.0000,   0,1.0000
  148,    95,'1 ', 0.00047, 0.00993,1.09577,3585.35,9999.00,9999.00,  0.00000,  0.00000,  0.00000,  0.00000,1,1,   0.0,   1,1.0000,   0,1.0000,   0,1.0000,   0,1.0000
   96,   101,'1 ', 0.00020, 0.00428,0.47225,3585.35,9999.00,9999.00,  0.00000,  0.00000,  0.00000,  0.00000,1,1,   0.0,   1,1.0000,   0,1.0000,   0,1.0000,   0,1.0000
   96,   102,'1 ', 0.00010, 0.00203,0.22352,3585.35,9999.00,9999.00,  0.00000,  0.00000,  0.00000,  0.00000,1,1,   0.0,   1,1.0000,   0,1.0000,   0,1.0000,   0,1.0000
  103,    97,'1 ', 0.00018, 0.00390,0.43064,3585.35,9999.00,9999.00,  0.00000,  0.00000,  0.00000,  0.00000,1,1,   0.0,   1,1.0000,   0,1.0000,   0,1.0000,   0,1.0000
  150,    97,'1 ', 0.00026, 0.00548,0.60445,3585.35,9999.00,9999.00,  0.00000,  0.00000,  0.00000,  0.00000,1,1,   0.0,   1,1.0000,   0,1.0000,   0,1.0000,   0,1.0000
   98,   108,'1 ', 0.00011, 0.00228,0.25174,3585.35,9999.00,9999.00,  0.00000,  0.00000,  0.00000,  0.00000,1,1,   0.0,   1,1.0000,   0,1.0000,   0,1.0000,   0,1.0000
  144,    98,'1 ', 0.00040, 0.00840,0.92687,3585.35,9999.00,9999.00,  0.00000,  0.00000,  0.00000,  0.00000,1,1,   0.0,   1,1.0000,   0,1.0000,   0,1.0000,   0,1.0000
  104,    99,'1 ', 0.00010, 0.00212,0.23376,3585.35,9999.00,9999.00,  0.00000,  0.00000,  0.00000,  0.00000,1,1,   0.0,   1,1.0000,   0,1.0000,   0,1.0000,   0,1.0000
   99,   137,'1 ', 0.00044, 0.00934,1.03107,3585.35,9999.00,9999.00,  0.00000,  0.00000,  0.00000,  0.00000,1,1,   0.0,   1,1.0000,   0,1.0000,   0,1.0000,   0,1.0000
  139,   100,'1 ', 0.00021, 0.00435,0.48054,3585.35,9999.00,9999.00,  0.00000,  0.00000,  0.00000,  0.00000,1,1,   0.0,   1,1.0000,   0,1.0000,   0,1.0000,   0,1.0000
  108,   101,'1 ', 0.00038, 0.00809,0.89305,3585.35,9999.00,9999.00,  0.00000,  0.00000,  0.00000,  0.00000,1,1,   0.0,   1,1.0000,   0,1.0000,   0,1.0000,   0,1.0000
  142,   101,'1 ', 0.00018, 0.00377,0.41573,3585.35,9999.00,9999.00,  0.00000,  0.00000,  0.00000,  0.00000,1,1,   0.0,   1,1.0000,   0,1.0000,   0,1.0000,   0,1.0000
  144,   101,'1 ', 0.00067, 0.01420,1.56758,3585.35,9999.00,9999.00,  0.00000,  0.00000,  0.00000,  0.00000,1,1,   0.0,   1,1.0000,   0,1.0000,   0,1.0000,   0,1.0000
  105,   102,'1 ', 0.00044, 0.00931,1.02721,3585.35,9999.00,9999.00,  0.00000,  0.00000,  0.00000,  0.00000,1,1,   0.0,   1,1.0000,   0,1.0000,   0,1.0000,   0,1.0000
  106,   102,'1 ', 0.00033, 0.00698,0.77057,3585.35,9999.00,9999.00,  0.00000,  0.00000,  0.00000,  0.00000,1,1,   0.0,   1,1.0000,   0,1.0000,   0,1.0000,   0,1.0000
  104,   137,'1 ', 0.00036, 0.00751,0.82922,3585.35,9999.00,9999.00,  0.00000,  0.00000,  0.00000,  0.00000,1,1,   0.0,   1,1.0000,   0,1.0000,   0,1.0000,   0,1.0000
  146,   105,'1 ', 0.00061, 0.01292,1.42581,3585.35,9999.00,9999.00,  0.00000,  0.00000,  0.00000,  0.00000,1,1,   0.0,   1,1.0000,   0,1.0000,   0,1.0000,   0,1.0000
  109,   107,'1 ', 0.00040, 0.00849,0.93683,3585.35,9999.00,9999.00,  0.00000,  0.00000,  0.00000,  0.00000,1,1,   0.0,   1,1.0000,   0,1.0000,   0,1.0000,   0,1.0000
  107,   139,'1 ', 0.00028, 0.00588,0.64896,3585.35,9999.00,9999.00,  0.00000,  0.00000,  0.00000,  0.00000,1,1,   0.0,   1,1.0000,   0,1.0000,   0,1.0000,   0,1.0000
  146,   107,'1 ', 0.00035, 0.00736,0.81179,3585.35,9999.00,9999.00,  0.00000,  0.00000,  0.00000,  0.00000,1,1,   0.0,   1,1.0000,   0,1.0000,   0,1.0000,   0,1.0000
  144,   108,'1 ', 0.00045, 0.00947,1.04538,3585.35,9999.00,9999.00,  0.00000,  0.00000,  0.00000,  0.00000,1,1,   0.0,   1,1.0000,   0,1.0000,   0,1.0000,   0,1.0000
0 / END OF BRANCH DATA, BEGIN TRANSFORMER DATA
  144,    1,    0,'1 ',1,1,1,  0.00000,  0.00000,2,'        ',1,   1,1.0000,   0,1.0000,   0,1.0000,   0,1.0000
 0.00012, 0.00490, 100.00
1.02000,500.000,   0.000,2042.60,9999.00,9999.00,0,     0, 1.50000, 0.51000, 1.50000, 0.51000,159, 0, 0.00000, 0.00000
1.00000, 13.800
    8,  102,    0,'1 ',1,1,1,  0.00000,  0.00000,2,'        ',1,   1,1.0000,   0,1.0000,   0,1.0000,   0,1.0000
 0.00020, 0.01600, 100.00
1.00000,230.000,   0.000,1000.00,9999.00,9999.00,0,     0, 1.50000, 0.51000, 1.50000, 0.51000,159, 0, 0.00000, 0.00000
1.00000,500.000
   11,   98,    0,'1 ',1,1,1,  0.00000,  0.00000,2,'        ',1,   1,1.0000,   0,1.0000,   0,1.0000,   0,1.0000
 0.00020, 0.01600, 100.00
1.00000,230.000,   0.000,1000.00,9999.00,9999.00,0,     0, 1.50000, 0.51000, 1.50000, 0.51000,159, 0, 0.00000, 0.00000
1.00000,500.000
   14,  108,    0,'1 ',1,1,1,  0.00000,  0.00000,2,'        ',1,   1,1.0000,   0,1.0000,   0,1.0000,   0,1.0000
 0.00020, 0.01600, 100.00
1.00000,230.000,   0.000,1000.00,9999.00,9999.00,0,     0, 1.50000, 0.51000, 1.50000, 0.51000,159, 0, 0.00000, 0.00000
1.00000,500.000
   22,  101,    0,'1 ',1,1,1,  0.00000,  0.00000,2,'        ',1,   1,1.0000,   0,1.0000,   0,1.0000,   0,1.0000
 0.00020, 0.01600, 100.00
1.00000,230.000,   0.000,1000.00,9999.00,9999.00,0,     0, 1.50000, 0.51000, 1.50000, 0.51000,159, 0, 0.00000, 0.00000
1.00000,500.000
   22,  101,    0,'2 ',1,1,1,  0.00000,  0.00000,2,'        ',1,   1,1.0000,   0,1.0000,   0,1.0000,   0,1.0000
 0.00020, 0.01600, 100.00
1.00000,230.000,   0.000,1000.00,9999.00,9999.00,0,     0, 1.50000, 0.51000, 1.50000, 0.51000,159, 0, 0.00000, 0.00000
1.00000,500.000
   23,   96,    0,'1 ',1,1,1,  0.00000,  0.00000,2,'        ',1,   1,1.0000,   0,1.0000,   0,1.0000,   0,1.0000
 0.00020, 0.01600, 100.00
1.00000,230.000,   0.000,1000.00,9999.00,9999.00,0,     0, 1.50000, 0.51000, 1.50000, 0.51000,159, 0, 0.00000, 0.00000
1.00000,500.000
   27,  106,    0,'1 ',1,1,1,  0.00000,  0.00000,2,'        ',1,   1,1.0000,   0,1.0000,   0,1.0000,   0,1.0000
 0.00020, 0.01600, 100.00
1.00000,230.000,   0.000,1000.00,9999.00,9999.00,0,     0, 1.50000, 0.51000, 1.50000, 0.51000,159, 0, 0.00000, 0.00000
1.00000,500.000
   33,  107,    0,'1 ',1,1,1,  0.00000,  0.00000,2,'        ',1,   1,1.0000,   0,1.0000,   0,1.0000,   0,1.0000
 0.00020, 0.01600, 100.00
1.00000,230.000,   0.000,1000.00,9999.00,9999.00,0,     0, 1.50000, 0.51000, 1.50000, 0.51000,159, 0, 0.00000, 0.00000
1.00000,500.000
   40,   94,    0,'1 ',1,1,1,  0.00000,  0.00000,2,'        ',1,   1,1.0000,   0,1.0000,   0,1.0000,   0,1.0000
 0.00020, 0.01600, 100.00
1.00000,230.000,   0.000,1000.00,9999.00,9999.00,0,     0, 1.50000, 0.51000, 1.50000, 0.51000,159, 0, 0.00000, 0.00000
1.00000,500.000
   43,   97,    0,'1 ',1,1,1,  0.00000,  0.00000,2,'        ',1,   1,1.0000,   0,1.0000,   0,1.0000,   0,1.0000
 0.00020, 0.01600, 100.00
1.00000,230.000,   0.000,1000.00,9999.00,9999.00,0,     0, 1.50000, 0.51000, 1.50000, 0.51000,159, 0, 0.00000, 0.00000
1.00000,500.000
   45,  103,    0,'1 ',1,1,1,  0.00000,  0.00000,2,'        ',1,   1,1.0000,   0,1.0000,   0,1.0000,   0,1.0000
 0.00020, 0.01600, 100.00
1.00000,230.000,   0.000,1000.00,9999.00,9999.00,0,     0, 1.50000, 0.51000, 1.50000, 0.51000,159, 0, 0.00000, 0.00000
1.00000,500.000
   49,  109,    0,'1 ',1,1,1,  0.00000,  0.00000,2,'        ',1,   1,1.0000,   0,1.0000,   0,1.0000,   0,1.0000
 0.00020, 0.01600, 100.00
...